examples/feeders/1_SE001_1/012_cargasMT_1_1.dss
New Load.MT_101418_M1 bus1=244091.1.2.3.4 phases=3 conn=Delta model=2 kv=23.1 kw=48.763471 pf=0.92 daily=MT2_DU status=variable vmaxpu=1.5 vminpu=0.93
New Load.MT_101418_M2 bus1=244091.1.2.3.4 phases=3 conn=Delta model=3 kv=23.1 kw=48.763471 pf=0.92 daily=MT2_DU status=variable vmaxpu=1.5 vminpu=0.93
New Load.MT_102314_M1 bus1=362191.1.2.3.4 phases=3 conn=Delta model=2 kv=23.1 kw=0.0617985 pf=0.92 daily=MT4_DU status=variable vmaxpu=1.5 vminpu=0.93
New Load.MT_102314_M2 bus1=362191.1.2.3.4 phases=3 conn=Delta model=3 kv=23.1 kw=0.0617985 pf=0.92 daily=MT4_DU status=variable vmaxpu=1.5 vminpu=0.93
New Load.MT_103587_M1 bus1=288891.1.2.3.4 phases=3 conn=Delta model=2 kv=23.1 kw=9.6827535 pf=0.92 daily=MT5_DU status=variable vmaxpu=1.5 vminpu=0.93
New Load.MT_103587_M2 bus1=288891.1.2.3.4 phases=3 conn=Delta model=3 kv=23.1 kw=9.6827535 pf=0.92 daily=MT5_DU status=variable vmaxpu=1.5 vminpu=0.93
New Load.MT_103719_M1 bus1=246921.1.2.3.4 phases=3 conn=Delta model=2 kv=23.1 kw=25.649275 pf=0.92 daily=MT4_DU status=variable vmaxpu=1.5 vminpu=0.93
New Load.MT_103719_M2 bus1=246921.1.2.3.4 phases=3 conn=Delta model=3 kv=23.1 kw=25.649275 pf=0.92 daily=MT4_DU status=variable vmaxpu=1.5 vminpu=0.93
New Load.MT_117303_M1 bus1=229781.1.2.3.4 phases=3 conn=Delta model=2 kv=23.1 kw=7.05743 pf=0.92 daily=MT4_DU status=variable vmaxpu=1.5 vminpu=0.93
New Load.MT_117303_M2 bus1=229781.1.2.3.4 phases=3 conn=Delta model=3 kv=23.1 kw=7.05743 pf=0.92 daily=MT4_DU status=variable vmaxpu=1.5 vminpu=0.93
New Load.MT_119028_M1 bus1=602451.1.2.3.4 phases=3 conn=Delta model=2 kv=23.1 kw=0.727106 pf=0.92 daily=MT5_DU status=variable vmaxpu=1.5 vminpu=0.93
New Load.MT_119028_M2 bus1=602451.1.2.3.4 phases=3 conn=Delta model=3 kv=23.1 kw=0.727106 pf=0.92 daily=MT5_DU status=variable vmaxpu=1.5 vminpu=0.93
New Load.MT_119563_M1 bus1=347281.1.2.3.4 phases=3 conn=Delta model=2 kv=23.1 kw=2.6366245 pf=0.92 daily=MT2_DU status=variable vmaxpu=1.5 vminpu=0.93
New Load.MT_119563_M2 bus1=347281.1.2.3.4 phases=3 conn=Delta model=3 kv=23.1 kw=2.6366245 pf=0.92 daily=MT2_DU status=variable vmaxpu=1.5 vminpu=0.93
New Load.MT_119729_M1 bus1=364042.1.2.3.4 phases=3 conn=Delta model=2 kv=23.1 kw=8.110771 pf=0.92 daily=MT6_DU status=variable vmaxpu=1.5 vminpu=0.93
New Load.MT_119729_M2 bus1=364042.1.2.3.4 phases=3 conn=Delta model=3 kv=23.1 kw=8.110771 pf=0.92 daily=MT6_DU status=variable vmaxpu=1.5 vminpu=0.93
New Load.MT_125787_M1 bus1=226501.1.2.3.4 phases=3 conn=Delta model=2 kv=23.1 kw=7.9995195 pf=0.92 daily=MT4_DU status=variable vmaxpu=1.5 vminpu=0.93
New Load.MT_125787_M2 bus1=226501.1.2.3.4 phases=3 conn=Delta model=3 kv=23.1 kw=7.9995195 pf=0.92 daily=MT4_DU status=variable vmaxpu=1.5 vminpu=0.93
New Load.MT_128196_M1 bus1=246881.1.2.3.4 phases=3 conn=Delta model=2 kv=23.1 kw=7.9631105 pf=0.92 daily=MT1_DU status=variable vmaxpu=1.5 vminpu=0.93
New Load.MT_128196_M2 bus1=246881.1.2.3.4 phases=3 conn=Delta model=3 kv=23.1 kw=7.9631105 pf=0.92 daily=MT1_DU status=variable vmaxpu=1.5 vminpu=0.93
New Load.MT_129963_M1 bus1=659311.1.2.3.4 phases=3 conn=Delta model=2 kv=23.1 kw=8.852647 pf=0.92 daily=MT3_DU status=variable vmaxpu=1.5 vminpu=0.93
New Load.MT_129963_M2 bus1=659311.1.2.3.4 phases=3 conn=Delta model=3 kv=23.1 kw=8.852647 pf=0.92 daily=MT3_DU status=variable vmaxpu=1.5 vminpu=0.93
New Load.MT_130173_M1 bus1=375721.1.2.3.4 phases=3 conn=Delta model=2 kv=23.1 kw=0.8279005 pf=0.92 daily=MT3_DU status=variable vmaxpu=1.5 vminpu=0.93
New Load.MT_130173_M2 bus1=375721.1.2.3.4 phases=3 conn=Delta model=3 kv=23.1 kw=0.8279005 pf=0.92 daily=MT3_DU status=variable vmaxpu=1.5 vminpu=0.93
New Load.MT_130425_M1 bus1=403691.1.2.3.4 phases=3 conn=Delta model=2 kv=23.1 kw=11.778207 pf=0.92 daily=MT3_DU status=variable vmaxpu=1.5 vminpu=0.93
New Load.MT_130425_M2 bus1=403691.1.2.3.4 phases=3 conn=Delta model=3 kv=23.1 kw=11.778207 pf=0.92 daily=MT3_DU status=variable vmaxpu=1.5 vminpu=0.93
New Load.MT_131081_M1 bus1=719502.1.2.3.4 phases=3 conn=Delta model=2 kv=23.1 kw=258.929858 pf=0.92 daily=MT3_DU status=variable vmaxpu=1.5 vminpu=0.93
New Load.MT_131081_M2 bus1=719502.1.2.3.4 phases=3 conn=Delta model=3 kv=23.1 kw=258.929858 pf=0.92 daily=MT3_DU status=variable vmaxpu=1.5 vminpu=0.93
New Load.MT_134905_M1 bus1=226501.1.2.3.4 phases=3 conn=Delta model=2 kv=23.1 kw=37.015395 pf=0.92 daily=MT2_DU status=variable vmaxpu=1.5 vminpu=0.93
New Load.MT_134905_M2 bus1=226501.1.2.3.4 phases=3 conn=Delta model=3 kv=23.1 kw=37.015395 pf=0.92 daily=MT2_DU status=variable vmaxpu=1.5 vminpu=0.93
New Load.MT_137231_M1 bus1=812621.1.2.3.4 phases=3 conn=Delta model=2 kv=23.1 kw=0.089265 pf=0.92 daily=MT4_DU status=variable vmaxpu=1.5 vminpu=0.93
New Load.MT_137231_M2 bus1=812621.1.2.3.4 phases=3 conn=Delta model=3 kv=23.1 kw=0.089265 pf=0.92 daily=MT4_DU status=variable vmaxpu=1.5 vminpu=0.93
New Load.MT_137802_M1 bus1=785901.1.2.3.4 phases=3 conn=Delta model=2 kv=23.1 kw=80.62034 pf=0.92 daily=MT2_DU status=variable vmaxpu=1.5 vminpu=0.93
New Load.MT_137802_M2 bus1=785901.1.2.3.4 phases=3 conn=Delta model=3 kv=23.1 kw=80.62034 pf=0.92 daily=MT2_DU status=variable vmaxpu=1.5 vminpu=0.93
New Load.MT_1704931_M1 bus1=459551.1.2.3.4 phases=3 conn=Delta model=2 kv=23.1 kw=8.5774155 pf=0.92 daily=MT1_DU status=variable vmaxpu=1.5 vminpu=0.93
New Load.MT_1704931_M2 bus1=459551.1.2.3.4 phases=3 conn=Delta model=3 kv=23.1 kw=8.5774155 pf=0.92 daily=MT1_DU status=variable vmaxpu=1.5 vminpu=0.93
New Load.MT_1732221_M1 bus1=812981.1.2.3.4 phases=3 conn=Delta model=2 kv=23.1 kw=25.186433 pf=0.92 daily=MT6_DU status=variable vmaxpu=1.5 vminpu=0.93
New Load.MT_1732221_M2 bus1=812981.1.2.3.4 phases=3 conn=Delta model=3 kv=23.1 kw=25.186433 pf=0.92 daily=MT6_DU status=variable vmaxpu=1.5 vminpu=0.93
New Load.MT_1732557_M1 bus1=700531.1.2.3.4 phases=3 conn=Delta model=2 kv=23.1 kw=23.306028 pf=0.92 daily=MT3_DU status=variable vmaxpu=1.5 vminpu=0.93
New Load.MT_1732557_M2 bus1=700531.1.2.3.4 phases=3 conn=Delta model=3 kv=23.1 kw=23.306028 pf=0.92 daily=MT3_DU status=variable vmaxpu=1.5 vminpu=0.93
